tests/ieee12g_pvsync_50.raw
0,   100.00, 33, 0, 1, 50.00     / PSS(R)E-33.3    WED, OCT 22 2014  13:32


     1,'            ', 230.0000,1,   1,   1,   1,0.98207,  -2.7929,1.10000,0.90000,1.10000,0.90000
     2,'            ', 230.0000,1,   1,   1,   1,0.98955,  -0.2622,1.10000,0.90000,1.10000,0.90000
     3,'            ', 230.0000,1,   1,   1,   1,1.01141, -10.2304,1.10000,0.90000,1.10000,0.90000
     4,'            ', 230.0000,1,   1,   1,   1,1.00988, -10.1536,1.10000,0.90000,1.10000,0.90000
     5,'            ', 230.0000,1,   1,   1,   1,1.00523,   2.1796,1.10000,0.90000,1.10000,0.90000
     6,'            ', 230.0000,1,   1,   1,   1,1.00475,  -5.0322,1.10000,0.90000,1.10000,0.90000
     7,'            ', 345.0000,1,   1,   1,   1,1.00361,  -2.3512,1.10000,0.90000,1.10000,0.90000
     8,'            ', 345.0000,1,   1,   1,   1,1.04675,  -9.2473,1.10000,0.90000,1.10000,0.90000
     9,'            ',  15.5000,3,   1,   1,   1,1.00000,   0.0000,1.10000,0.90000,1.10000,0.90000
    10,'            ',  15.0000,2,   1,   1,   1,1.01000,   2.2446,1.10000,0.90000,1.10000,0.90000
    11,'            ',  18.0000,2,   1,   1,   1,1.01000,  -7.0130,1.10000,0.90000,1.10000,0.90000
    12,'            ',  13.8000,2,   1,   1,   1,1.01000,  -1.7543,1.10000,0.90000,1.10000,0.90000
    13,'PV1         ',  15.0000,2,   1,   1,   1,1.00000,   5.9822,1.10000,0.90000,1.10000,0.90000
    14,'PV2         ',  15.0000,2,   1,   1,   1,1.00000,   5.9822,1.10000,0.90000,1.10000,0.90000
    15,'PV3         ',  15.0000,2,   1,   1,   1,1.00000,   5.9822,1.10000,0.90000,1.10000,0.90000
    16,'PV4         ',  15.0000,2,   1,   1,   1,1.01000,  -6.4886,1.10000,0.90000,1.10000,0.90000
    17,'PV5         ',  15.0000,2,   1,   1,   1,1.01000,  -6.4060,1.10000,0.90000,1.10000,0.90000
    18,'PV6         ',  15.0000,2,   1,   1,   1,1.01000,  -6.4060,1.10000,0.90000,1.10000,0.90000
    19,'PV7         ',  15.0000,2,   1,   1,   1,1.01000,  -6.4886,1.10000,0.90000,1.10000,0.90000
    20,'PV8         ',  15.0000,2,   1,   1,   1,1.00000,   1.4576,1.10000,0.90000,1.10000,0.90000
    21,'PV9         ',  15.0000,2,   1,   1,   1,0.99000,   3.6398,1.10000,0.90000,1.10000,0.90000
0 / END OF BUS DATA, BEGIN LOAD DATA
     1,'1 ',1,   1,   1,   383.000,   237.000,     0.000,     0.000,     0.000,     0.000,   1,1,0
     2,'1 ',1,   1,   1,   319.000,   154.000,     0.000,     0.000,     0.000,     0.000,   1,1,0
     3,'1 ',1,   1,   1,   447.000,   147.000,     0.000,     0.000,     0.000,     0.000,   1,1,0
     4,'1 ',1,   1,   1,   383.000,   237.000,     0.000,     0.000,     0.000,     0.000,   1,1,0
     5,'1 ',1,   1,   1,   128.000,    61.000,     0.000,     0.000,     0.000,     0.000,   1,1,0
     6,'1 ',1,   1,   1,   191.000,    63.000,     0.000,     0.000,     0.000,     0.000,   1,1,0
0 / END OF LOAD DATA, BEGIN FIXED SHUNT DATA
     4,'1 ',1,     0.000,   200.000
     5,'1 ',1,     0.000,    40.000
     6,'1 ',1,     0.000,     0.000
     7,'1 ',1,     0.000,  -100.000
0 / END OF FIXED SHUNT DATA, BEGIN GENERATOR DATA
     9,'1 ',   319.019,   127.294,  9999.000, -9999.000,1.00000,     0,   768.000, 0.00000E+0, 1.30000E-1, 0.00000E+0, 0.00000E+0,1.00000,1,  768.0,   768.000, -9999.000,   1,1.0000
    10,'1 ',   255.000,   126.048,  9999.000, -9999.000,1.01000,     0,   640.000, 0.00000E+0, 1.30000E-1, 0.00000E+0, 0.00000E+0,1.00000,1,  640.0,   640.000, -9999.000,   1,1.0000
    11,'1 ',   172.000,     0.549,  9999.000, -9999.000,1.01000,     0,   400.000, 0.00000E+0, 1.30000E-1, 0.00000E+0, 0.00000E+0,1.00000,1,  400.0,   400.000, -9999.000,   1,1.0000
    12,'1 ',   211.000,    25.315,  9999.000, -9999.000,1.01000,     0,   500.000, 0.00000E+0, 5.10000E-1, 0.00000E+0, 0.00000E+0,1.00000,1,  500.0,   500.000, -9999.000,   1,1.0000
    13,'1 ',   100.000,    -4.529,    75.000,   -75.000,1.00000,     0,   125.000, 0.00000E-2, 3.00000E-1, 0.00000E+0, 0.00000E+0,1.00000,1,  100.0,   100.000, -9999.000,   1,1.0000
    14,'1 ',   100.000,    -4.529,    75.000,   -75.000,1.00000,     0,   125.000, 0.00000E-2, 3.00000E-1, 0.00000E+0, 0.00000E+0,1.00000,1,  100.0,   100.000, -9999.000,   1,1.0000
    15,'1 ',   100.000,    -4.529,    75.000,   -75.000,1.00000,     0,   125.000, 0.00000E-2, 3.00000E-1, 0.00000E+0, 0.00000E+0,1.00000,1,  100.0,   100.000, -9999.000,   1,1.0000
    16,'1 ',   100.000,     1.126,    75.000,   -75.000,1.01000,     0,   125.000, 0.00000E-2, 3.00000E-1, 0.00000E+0, 0.00000E+0,1.00000,1,  100.0,   100.000, -9999.000,   1,1.0000
    17,'1 ',   100.000,     3.447,    75.000,   -75.000,1.01000,     0,   125.000, 0.00000E-2, 3.00000E-1, 0.00000E+0, 0.00000E+0,1.00000,1,  100.0,   100.000, -9999.000,   1,1.0000
    18,'1 ',   100.000,     3.447,    75.000,   -75.000,1.01000,     0,   125.000, 0.00000E-2, 3.00000E-1, 0.00000E+0, 0.00000E+0,1.00000,1,  100.0,   100.000, -9999.000,   1,1.0000
    19,'1 ',   100.000,     1.126,    75.000,   -75.000,1.01000,     0,   125.000, 0.00000E-2, 3.00000E-1, 0.00000E+0, 0.00000E+0,1.00000,1,  100.0,   100.000, -9999.000,   1,1.0000
    20,'1 ',   100.000,    -2.091,    75.000,   -75.000,1.00000,     0,   125.000, 0.00000E-2, 3.00000E-1, 0.00000E+0, 0.00000E+0,1.00000,1,  100.0,   100.000, -9999.000,   1,1.0000
    21,'1 ',   100.000,     4.071,    75.000,   -75.000,0.99000,     0,   125.000, 0.00000E-2, 3.00000E-1, 0.00000E+0, 0.00000E+0,1.00000,1,  100.0,   100.000, -9999.000,   1,1.0000
0 / END OF GENERATOR DATA, BEGIN BRANCH DATA
     1,     2,'1 ', 1.13100E-2, 8.99800E-2,   0.18377,    0.00,    0.00,    0.00,  0.00000,  0.00000,  0.00000,  0.00000,1,1,   0.00,   1,1.0000
     1,     6,'1 ', 3.39400E-2, 2.69950E-1,   0.55130,    0.00,    0.00,    0.00,  0.00000,  0.00000,  0.00000,  0.00000,1,1,   0.00,   1,1.0000
     2,     5,'1 ', 4.53000E-2, 3.59900E-1,   0.73510,    0.00,    0.00,    0.00,  0.00000,  0.00000,  0.00000,  0.00000,1,1,   0.00,   1,1.0000
     3,     4,'1 ', 5.70000E-3, 4.50000E-2,   0.36750,    0.00,    0.00,    0.00,  0.00000,  0.00000,  0.00000,  0.00000,1,1,   0.00,   1,1.0000
     3,     4,'2 ', 5.70000E-3, 4.50000E-2,   0.36750,    0.00,    0.00,    0.00,  0.00000,  0.00000,  0.00000,  0.00000,1,1,   0.00,   1,1.0000
     4,     5,'1 ', 1.70000E-2, 1.35000E-1,   0.27570,    0.00,    0.00,    0.00,  0.00000,  0.00000,  0.00000,  0.00000,1,1,   0.00,   1,1.0000
     4,     6,'1 ', 3.39400E-2, 2.69950E-1,   0.55130,    0.00,    0.00,    0.00,  0.00000,  0.00000,  0.00000,  0.00000,1,1,   0.00,   1,1.0000
     7,     8,'1 ', 1.59000E-2, 1.72100E-1,   3.28530,    0.00,    0.00,    0.00,  0.00000,  0.00000,  0.00000,  0.00000,1,1,   0.00,   1,1.0000
0 / END OF BRANCH DATA, BEGIN TRANSFORMER DATA
     1,     7,     0,'1 ',1,2,1, 0.00000E+0, 0.00000E+0,2,'            ',1,   1,1.0000,   0,1.0000,   0,1.0000,   0,1.0000,'            '
 0.00000E+0, 1.30000E-1,   500.00
1.00000,   0.000,   0.000,   500.00,   500.00,   500.00, 0,      0, 1.10000, 0.90000, 1.10000, 0.90000,  33, 0, 0.00000, 0.00000,  0.000
1.00000,   0.000
     1,     9,     0,'1 ',1,2,1, 0.00000E+0, 0.00000E+0,2,'            ',1,   1,1.0000,   0,1.0000,   0,1.0000,   0,1.0000,'            '
 0.00000E+0, 1.20000E-1,   800.00
1.00000,   0.000,   0.000,   800.00,   800.00,   800.00, 0,      0, 1.10000, 0.90000, 1.10000, 0.90000,  33, 0, 0.00000, 0.00000,  0.000
1.00000,   0.000
     2,    10,     0,'1 ',1,2,1, 0.00000E+0, 0.00000E+0,2,'            ',1,   1,1.0000,   0,1.0000,   0,1.0000,   0,1.0000,'            '
 0.00000E+0, 1.20000E-1,   700.00
1.00000,   0.000,   0.000,   700.00,   700.00,   700.00, 0,      0, 1.10000, 0.90000, 1.10000, 0.90000,  33, 0, 0.00000, 0.00000,  0.000
1.00000,   0.000
    21,     2,     0,'1 ',1,2,1, 0.00000E+0, 0.00000E+0,2,'            ',1,   1,1.0000,   0,1.0000,   0,1.0000,   0,1.0000,'            '
 0.00000E+0, 1.00000E-1,   150.00
1.00000,   0.000,   0.000,   150.00,   150.00,   150.00, 0,      0, 1.10000, 0.90000, 1.10000, 0.90000,  33, 0, 0.00000, 0.00000,  0.000
1.00000,   0.000
     3,     8,     0,'1 ',1,2,1, 0.00000E+0, 0.00000E+0,2,'            ',1,   1,1.0000,   0,1.0000,   0,1.0000,   0,1.0000,'            '
 0.00000E+0, 1.30000E-1,   500.00
1.00000,   0.000,   0.000,   500.00,   500.00,   500.00, 0,      0, 1.10000, 0.90000, 1.10000, 0.90000,  33, 0, 0.00000, 0.00000,  0.000
1.00000,   0.000
     3,    11,     0,'1 ',1,2,1, 0.00000E+0, 0.00000E+0,2,'            ',1,   1,1.0000,   0,1.0000,   0,1.0000,   0,1.0000,'            '
 0.00000E+0, 1.00000E-1,   300.00
1.00000,   0.000,   0.000,   400.00,   400.00,   400.00, 0,      0, 1.10000, 0.90000, 1.10000, 0.90000,  33, 0, 0.00000, 0.00000,  0.000
1.00000,   0.000
    16,     3,     0,'1 ',1,2,1, 0.00000E+0, 0.00000E+0,2,'            ',1,   1,1.0000,   0,1.0000,   0,1.0000,   0,1.0000,'            '
 0.00000E+0, 1.00000E-1,   150.00
1.00000,   0.000,   0.000,   150.00,   150.00,   150.00, 0,      0, 1.10000, 0.90000, 1.10000, 0.90000,  33, 0, 0.00000, 0.00000,  0.000
1.00000,   0.000
    19,     3,     0,'1 ',1,2,1, 0.00000E+0, 0.00000E+0,2,'            ',1,   1,1.0000,   0,1.0000,   0,1.0000,   0,1.0000,'            '
 0.00000E+0, 1.00000E-1,   150.00
1.00000,   0.000,   0.000,   150.00,   150.00,   150.00, 0,      0, 1.10000, 0.90000, 1.10000, 0.90000,  33, 0, 0.00000, 0.00000,  0.000
1.00000,   0.000
    17,     4,     0,'1 ',1,2,1, 0.00000E+0, 0.00000E+0,2,'            ',1,   1,1.0000,   0,1.0000,   0,1.0000,   0,1.0000,'            '
 0.00000E+0, 1.00000E-1,   150.00
1.00000,   0.000,   0.000,   150.00,   150.00,   150.00, 0,      0, 1.10000, 0.90000, 1.10000, 0.90000,  33, 0, 0.00000, 0.00000,  0.000
1.00000,   0.000
    18,     4,     0,'1 ',1,2,1, 0.00000E+0, 0.00000E+0,2,'            ',1,   1,1.0000,   0,1.0000,   0,1.0000,   0,1.0000,'            '
 0.00000E+0, 1.00000E-1,   150.00
1.00000,   0.000,   0.000,   150.00,   150.00,   150.00, 0,      0, 1.10000, 0.90000, 1.10000, 0.90000,  33, 0, 0.00000, 0.00000,  0.000
1.00000,   0.000
    13,     5,     0,'1 ',1,2,1, 0.00000E+0, 0.00000E+0,2,'            ',1,   1,1.0000,   0,1.0000,   0,1.0000,   0,1.0000,'            '
 0.00000E+0, 1.00000E-1,   150.00
1.00000,   0.000,   0.000,   150.00,   150.00,   150.00, 0,      0, 1.10000, 0.90000, 1.10000, 0.90000,  33, 0, 0.00000, 0.00000,  0.000
1.00000,   0.000
    14,     5,     0,'1 ',1,2,1, 0.00000E+0, 0.00000E+0,2,'            ',1,   1,1.0000,   0,1.0000,   0,1.0000,   0,1.0000,'            '
 0.00000E+0, 1.00000E-1,   150.00
1.00000,   0.000,   0.000,   150.00,   150.00,   150.00, 0,      0, 1.10000, 0.90000, 1.10000, 0.90000,  33, 0, 0.00000, 0.00000,  0.000
1.00000,   0.000
    15,     5,     0,'1 ',1,2,1, 0.00000E+0, 0.00000E+0,2,'            ',1,   1,1.0000,   0,1.0000,   0,1.0000,   0,1.0000,'            '
 0.00000E+0, 1.00000E-1,   150.00
1.00000,   0.000,   0.000,   150.00,   150.00,   150.00, 0,      0, 1.10000, 0.90000, 1.10000, 0.90000,  33, 0, 0.00000, 0.00000,  0.000
1.00000,   0.000
     6,    12,     0,'1 ',1,2,1, 0.00000E+0, 0.00000E+0,2,'            ',1,   1,1.0000,   0,1.0000,   0,1.0000,   0,1.0000,'            '
 0.00000E+0, 1.10000E-1,   400.00
1.00000,   0.000,   0.000,   500.00,   500.00,   500.00, 0,      0, 1.10000, 0.90000, 1.10000, 0.90000,  33, 0, 0.00000, 0.00000,  0.000
1.00000,   0.000
    20,     7,     0,'1 ',1,2,1, 0.00000E+0, 0.00000E+0,2,'            ',1,   1,1.0000,   0,1.0000,   0,1.0000,   0,1.0000,'            '
 0.00000E+0, 1.00000E-1,   150.00
1.00000,   0.000,   0.000,   150.00,   150.00,   150.00, 0,      0, 1.10000, 0.90000, 1.10000, 0.90000,  33, 0, 0.00000, 0.00000,  0.000
1.00000,   0.000
0 / END OF TRANSFORMER DATA, BEGIN AREA DATA
0 / END OF AREA DATA, BEGIN TWO-TERMINAL DC DATA
0 / END OF TWO-TERMINAL DC DATA, BEGIN VSC DC LINE DATA
0 / END OF VSC DC LINE DATA, BEGIN IMPEDANCE CORRECTION DATA
0 / END OF IMPEDANCE CORRECTION DATA, BEGIN MULTI-TERMINAL DC DATA
0 / END OF MULTI-TERMINAL DC DATA, BEGIN MULTI-SECTION LINE DATA
0 / END OF MULTI-SECTION LINE DATA, BEGIN ZONE DATA
0 / END OF ZONE DATA, BEGIN INTER-AREA TRANSFER DATA
0 / END OF INTER-AREA TRANSFER DATA, BEGIN OWNER DATA
0 / END OF OWNER DATA, BEGIN FACTS DEVICE DATA
0 / END OF FACTS DEVICE DATA, BEGIN SWITCHED SHUNT DATA
0 / END OF SWITCHED SHUNT DATA, BEGIN GNE DATA
0 / END OF GNE DATA, BEGIN INDUCTION MACHINE DATA
0 / END OF INDUCTION MACHINE DATA
Q
